[General]
tkenv-image-path=../../images
output-scalar-file-append = false
sim-time-limit=10s


**.vector-recording = false
##########################################################
#			Simulation parameters                        #
##########################################################
#record-eventlog = true
#eventlog-options = module, displaystring, message
#eventlog-message-detail-pattern = *:(not declaredOn(cMessage) and not declaredOn(cNamedObject) and not declaredOn(cObject))
tkenv-default-config = 
#debug-on-errors=true
#**.coreDebug = true
 

##########################################################
#			         channel parameters                  #
##########################################################
**.channelControl.pMax = 10W
**.channelControl.alpha = 1.0
**.channelControl.carrierFrequency = 2100e+6Hz

################### RLC parameters #######################
#**.fragmentSize=30B
#**.timeout=50s
################### MAC parameters #######################
**.mac.queueSize = 1MiB
**.mac.maxBytesPerTti = 1KiB
**.mac.macDelay.result-recording-modes = all
**.mac.macThroughput.result-recording-modes = all

# Schedulers
**.mac.schedulingDisciplineDl = "MAXCI"
**.mac.schedulingDisciplineUl = "MAXCI"

################ PhyLayer parameters #####################
**.nic.phy.usePropagationDelay = true
**.nic.phy.channelModel=xmldoc("config_channel.xml")

################ Feedback parameters #####################
**.feedbackComputation = xmldoc("config_channel.xml")

################ Mobility parameters #####################

# *
**.mobility.constraintAreaMinZ = 0m
**.mobility.constraintAreaMaxZ = 0m

**.mobility.initFromDisplayString = true

# UEs
**.enableHandover = false


################# Deployer parameters #######################
# UEs attached to eNB
**.fbDelay = 1

# General
**.deployer.positionUpdateInterval = 0.001s
**.deployer.broadcastMessageInterval = 1s

# RUs
**.deployer.numRus = 0
**.deployer.ruRange = 50
**.deployer.ruTxPower = "50,50,50;"
**.deployer.ruStartingAngle = 0deg
**.deployer.antennaCws = "2;" # !!MACRO + RUS (numRus + 1)

# AMC
**.deployer.numRbDl = 6
**.deployer.numRbUl = 6
**.deployer.rbyDl = 12
**.deployer.rbyUl = 12
**.deployer.rbxDl = 7
**.deployer.rbxUl = 7
**.deployer.rbPilotDl = 3
**.deployer.rbPilotUl = 0
**.deployer.signalDl = 1
**.deployer.signalUl = 1
**.deployer.numBands = 1
**.deployer.numPreferredBands = 1

############### AMC MODULE PARAMETERS ###############
**.rbAllocationType = "localized"
**.mac.amcMode = "AUTO"
**.feedbackType = "ALLBANDS"
**.feedbackGeneratorType = "IDEAL"
**.maxHarqRtx = 3
**.pfAlpha = 0.95
**.pfTmsAwareDL = false

############### Transmission Power ##################
**.ueTxPower = 26
**.microTxPower = 20
**.*TxPower = 46

[Config VoIP]
network = lte.simulations.sdn.SDN

# Schedulers
sim-time-limit = 5s
**.mac.schedulingDisciplineDl = "MAXCI"
**.mac.schedulingDisciplineUl = "MAXCI"

# one UDP application for each user
*.ue*.numUdpApps = 1

# the amount of UDP applications on server should be equal to (numUEs)*(ue[*].numUdpApps) 
*.server.numUdpApps = 2

# connect each UE to the eNB
**.ue1*.macCellId = 1
**.ue1*.masterId = 1
**.ue2*.macCellId = 5
**.ue2*.masterId = 5

# positioning and mobility
*.ue*.mobility.acceleration = 0
*.ue*.mobility.angle = uniform(0deg, 360deg)
*.ue*.mobility.constraintAreaMaxX = 10000m
*.ue*.mobility.constraintAreaMaxY = 10000m
*.ue*.mobility.constraintAreaMinX = 0m
*.ue*.mobility.constraintAreaMinY = 0m
*.ue*.mobility.initFromDisplayString = true
*.ue*.mobility.initialX = uniform(0m,300m)
*.ue*.mobility.initialY = uniform(0m,300m)
*.ue*.mobility.initialZ = 0
*.ue*.mobility.speed = 0mps
*.ue*.mobilityType = "LinearMobility"

#============= Application Setup =============
*.ue*.udpApp[*].typename = "VoIPReceiver"
*.ue*.udpApp[0].localPort = 3000
*.ue*.udpApp[0].serverAddress = "server"

*.server.udpApp[*].PacketSize = 40
*.server.udpApp[0].destAddress = "ue1" 
*.server.udpApp[1].destAddress = "ue2"
*.server.udpApp[*].destAddresses = ""
*.server.udpApp[*].destPort = 3000
*.server.udpApp[*].localPort = 3088+ancestorIndex(0) 
*.server.udpApp[*].typename = "VoIPSender"
*.server.udpApp[*].startTime = uniform(0s,0.02s)
#------------------------------------#


#------------------------------------#
# This configurations tests three types of well-known schedulers, namely DRR, 
# MAXCI and PF, in a scenario with VoIP like traffic. 
# The load of the system is varied by means of packet size and amount of UEs
[Config sdnTest]
output-scalar-file = ${resultdir}/${configname}-${iterationvars}-${repetition}.sca
output-vector-file = ${resultdir}/${configname}-${iterationvars}-${repetition}.vec
seed-set = ${repetition}

extends = VoIP
sim-time-limit = 5s
repeat = 1

*.eNodeB*.mobility.initFromDisplayString = true
#*.eNodeB1.mobility.initialX = 100m
#*.eNodeB1.mobility.initialY = 100m


*.eNodeB*.nic.phy.txDirection = "ANISOTROPIC"
*.eNodeB*.nic.phy.txAngle = 45
#*.eNodeB1.nic.phy.txAngle = 45
#*.eNodeB2.nic.phy.txAngle = 135

*.ue*.mobility.initFromDisplayString = true
#.ue1*.mobility.initialX = 200m
#.ue1*.mobility.initialY = 300m
*.ue*.mobilityType = "StationaryMobility"

*.server.numUdpApps = 2

**.deployer.numRbDl = 6
**.deployer.numRbUl = 6

**.numBands = 6
#------------------------------------#